plots/csv/rotor_angle_dev_bus20_julia.csv
t_s,rotor_angle_dev_rad,bus_voltage_angle_dev_rad,angle_source,angle_is_exact_bus_voltage
0.0,0.0,0.0,Vmag_get_voltage_magnitude_series__angle_get_voltage_angle_series,true
0.01,1.1490808304870376e-15,1.1490808304870376e-15,Vmag_get_voltage_magnitude_series__angle_get_voltage_angle_series,true
0.02,-4.718447854656868e-16,-4.718447854656868e-16,Vmag_get_voltage_magnitude_series__angle_get_voltage_angle_series,true
0.03,4.718447854657097e-16,4.718447854657097e-16,Vmag_get_voltage_magnitude_series__angle_get_voltage_angle_series,true
0.04,5.551115123074684e-18,5.551115123074684e-18,Vmag_get_voltage_magnitude_series__angle_get_voltage_angle_series,true
0.05,-2.747801985947805e-16,-2.747801985947805e-16,Vmag_get_voltage_magnitude_series__angle_get_voltage_angle_series,true
0.06,8.604228440834919e-17,8.604228440834919e-17,Vmag_get_voltage_magnitude_series__angle_get_voltage_angle_series,true
0.07,7.049916206370594e-16,7.049916206370594e-16,Vmag_get_voltage_magnitude_series__angle_get_voltage_angle_series,true
0.08,3.164135620181882e-16,3.164135620181882e-16,Vmag_get_voltage_magnitude_series__angle_get_voltage_angle_series,true
0.09,-3.191891195798176e-16,-3.191891195798176e-16,Vmag_get_voltage_magnitude_series__angle_get_voltage_angle_series,true
0.1,6.938893903907228e-17,6.938893903907228e-17,Vmag_get_voltage_magnitude_series__angle_get_voltage_angle_series,true
0.11,-0.001364118975094185,-0.001364118975094185,Vmag_get_voltage_magnitude_series__angle_get_voltage_angle_series,true
0.12,-0.0016852020672756187,-0.0016852020672756187,Vmag_get_voltage_magnitude_series__angle_get_voltage_angle_series,true
0.13,-0.0015427072019176544,-0.0015427072019176544,Vmag_get_voltage_magnitude_series__angle_get_voltage_angle_series,true
0.14,-0.0015072423684099473,-0.0015072423684099473,Vmag_get_voltage_magnitude_series__angle_get_voltage_angle_series,true
0.15,-0.0015524634808871806,-0.0015524634808871806,Vmag_get_voltage_magnitude_series__angle_get_voltage_angle_series,true
0.16,-0.0016645293599755497,-0.0016645293599755497,Vmag_get_voltage_magnitude_series__angle_get_voltage_angle_series,true
0.17,-0.0018245059623000983,-0.0018245059623000983,Vmag_get_voltage_magnitude_series__angle_get_voltage_angle_series,true
0.18,-0.0020179393245102913,-0.0020179393245102913,Vmag_get_voltage_magnitude_series__angle_get_voltage_angle_series,true
0.19,-0.0022347082097497594,-0.0022347082097497594,Vmag_get_voltage_magnitude_series__angle_get_voltage_angle_series,true
0.2,-0.0024703680126026183,-0.0024703680126026183,Vmag_get_voltage_magnitude_series__angle_get_voltage_angle_series,true
0.21,-0.0027224767011101636,-0.0027224767011101636,Vmag_get_voltage_magnitude_series__angle_get_voltage_angle_series,true
0.22,-0.002989700595792066,-0.002989700595792066,Vmag_get_voltage_magnitude_series__angle_get_voltage_angle_series,true
0.23,-0.00327113947524007,-0.00327113947524007,Vmag_get_voltage_magnitude_series__angle_get_voltage_angle_series,true
0.24,-0.0035662443906692674,-0.0035662443906692674,Vmag_get_voltage_magnitude_series__angle_get_voltage_angle_series,true
0.25,-0.0038745946992910663,-0.0038745946992910663,Vmag_get_voltage_magnitude_series__angle_get_voltage_angle_series,true
0.26,-0.004195808092705834,-0.004195808092705834,Vmag_get_voltage_magnitude_series__angle_get_voltage_angle_series,true
0.27,-0.004529459593522668,-0.004529459593522668,Vmag_get_voltage_magnitude_series__angle_get_voltage_angle_series,true
0.28,-0.004875042169677607,-0.004875042169677607,Vmag_get_voltage_magnitude_series__angle_get_voltage_angle_series,true
0.29,-0.005231947326562006,-0.005231947326562006,Vmag_get_voltage_magnitude_series__angle_get_voltage_angle_series,true
0.3,-0.005599461878932275,-0.005599461878932275,Vmag_get_voltage_magnitude_series__angle_get_voltage_angle_series,true
0.31,-0.005976776599599868,-0.005976776599599868,Vmag_get_voltage_magnitude_series__angle_get_voltage_angle_series,true
0.32,-0.006363001572985119,-0.006363001572985119,Vmag_get_voltage_magnitude_series__angle_get_voltage_angle_series,true
0.33,-0.006757185532966294,-0.006757185532966294,Vmag_get_voltage_magnitude_series__angle_get_voltage_angle_series,true
0.34,-0.007158336754267192,-0.007158336754267192,Vmag_get_voltage_magnitude_series__angle_get_voltage_angle_series,true
0.35,-0.007565443589378237,-0.007565443589378237,Vmag_get_voltage_magnitude_series__angle_get_voltage_angle_series,true
0.36,-0.00797749378093733,-0.00797749378093733,Vmag_get_voltage_magnitude_series__angle_get_voltage_angle_series,true
0.37,-0.008393491477908103,-0.008393491477908103,Vmag_get_voltage_magnitude_series__angle_get_voltage_angle_series,true
0.38,-0.008812471654511496,-0.008812471654511496,Vmag_get_voltage_magnitude_series__angle_get_voltage_angle_series,true
0.39,-0.009233511557686473,-0.009233511557686473,Vmag_get_voltage_magnitude_series__angle_get_voltage_angle_series,true
0.4,-0.009655739068512935,-0.009655739068512935,Vmag_get_voltage_magnitude_series__angle_get_voltage_angle_series,true
0.41,-0.010078338141543169,-0.010078338141543169,Vmag_get_voltage_magnitude_series__angle_get_voltage_angle_series,true
0.42,-0.010500551336187183,-0.010500551336187183,Vmag_get_voltage_magnitude_series__angle_get_voltage_angle_series,true
0.43,-0.010921679852278647,-0.010921679852278647,Vmag_get_voltage_magnitude_series__angle_get_voltage_angle_series,true
0.44,-0.011341081326540855,-0.011341081326540855,Vmag_get_voltage_magnitude_series__angle_get_voltage_angle_series,true
0.45,-0.011758165892926177,-0.011758165892926177,Vmag_get_voltage_magnitude_series__angle_get_voltage_angle_series,true
0.46,-0.012172390952928772,-0.012172390952928772,Vmag_get_voltage_magnitude_series__angle_get_voltage_angle_series,true
0.47,-0.012583255026797817,-0.012583255026797817,Vmag_get_voltage_magnitude_series__angle_get_voltage_angle_series,true
0.48,-0.012990291361695846,-0.012990291361695846,Vmag_get_voltage_magnitude_series__angle_get_voltage_angle_series,true
0.49,-0.01339306148175811,-0.01339306148175811,Vmag_get_voltage_magnitude_series__angle_get_voltage_angle_series,true
0.5,-0.013791149206459704,-0.013791149206459704,Vmag_get_voltage_magnitude_series__angle_get_voltage_angle_series,true
0.51,-0.014184155392690322,-0.014184155392690322,Vmag_get_voltage_magnitude_series__angle_get_voltage_angle_series,true
0.52,-0.014571693574116248,-0.014571693574116248,Vmag_get_voltage_magnitude_series__angle_get_voltage_angle_series,true
0.53,-0.014953386722380519,-0.014953386722380519,Vmag_get_voltage_magnitude_series__angle_get_voltage_angle_series,true
0.54,-0.015328865123361396,-0.015328865123361396,Vmag_get_voltage_magnitude_series__angle_get_voltage_angle_series,true
0.55,-0.015697765401408693,-0.015697765401408693,Vmag_get_voltage_magnitude_series__angle_get_voltage_angle_series,true
0.56,-0.01605973062652984,-0.01605973062652984,Vmag_get_voltage_magnitude_series__angle_get_voltage_angle_series,true
0.57,-0.01641441136695923,-0.01641441136695923,Vmag_get_voltage_magnitude_series__angle_get_voltage_angle_series,true
0.58,-0.016761467595514643,-0.016761467595514643,Vmag_get_voltage_magnitude_series__angle_get_voltage_angle_series,true
0.59,-0.017100571210567607,-0.017100571210567607,Vmag_get_voltage_magnitude_series__angle_get_voltage_angle_series,true
0.6,-0.017431409069534286,-0.017431409069534286,Vmag_get_voltage_magnitude_series__angle_get_voltage_angle_series,true
0.61,-0.017753686303948846,-0.017753686303948846,Vmag_get_voltage_magnitude_series__angle_get_voltage_angle_series,true
0.62,-0.018067129741099645,-0.018067129741099645,Vmag_get_voltage_magnitude_series__angle_get_voltage_angle_series,true
0.63,-0.018371491341973717,-0.018371491341973717,Vmag_get_voltage_magnitude_series__angle_get_voltage_angle_series,true
0.64,-0.018666551419573414,-0.018666551419573414,Vmag_get_voltage_magnitude_series__angle_get_voltage_angle_series,true
0.65,-0.018952121584832164,-0.018952121584832164,Vmag_get_voltage_magnitude_series__angle_get_voltage_angle_series,true
0.66,-0.01922804732877144,-0.01922804732877144,Vmag_get_voltage_magnitude_series__angle_get_voltage_angle_series,true
0.67,-0.019494210089851145,-0.019494210089851145,Vmag_get_voltage_magnitude_series__angle_get_voltage_angle_series,true
0.68,-0.019750528886114525,-0.019750528886114525,Vmag_get_voltage_magnitude_series__angle_get_voltage_angle_series,true
0.69,-0.019996961350422643,-0.019996961350422643,Vmag_get_voltage_magnitude_series__angle_get_voltage_angle_series,true
0.7,-0.02023350424354724,-0.02023350424354724,Vmag_get_voltage_magnitude_series__angle_get_voltage_angle_series,true
0.71,-0.02046019343299608,-0.02046019343299608,Vmag_get_voltage_magnitude_series__angle_get_voltage_angle_series,true
0.72,-0.02067710333580689,-0.02067710333580689,Vmag_get_voltage_magnitude_series__angle_get_voltage_angle_series,true
0.73,-0.020884345911584806,-0.020884345911584806,Vmag_get_voltage_magnitude_series__angle_get_voltage_angle_series,true
0.74,-0.021082069186543418,-0.021082069186543418,Vmag_get_voltage_magnitude_series__angle_get_voltage_angle_series,true
0.75,-0.02127045539235985,-0.02127045539235985,Vmag_get_voltage_magnitude_series__angle_get_voltage_angle_series,true
0.76,-0.021449718804290585,-0.021449718804290585,Vmag_get_voltage_magnitude_series__angle_get_voltage_angle_series,true
0.77,-0.021620103270198726,-0.021620103270198726,Vmag_get_voltage_magnitude_series__angle_get_voltage_angle_series,true
0.78,-0.021781879534097593,-0.021781879534097593,Vmag_get_voltage_magnitude_series__angle_get_voltage_angle_series,true
0.79,-0.02193534240907433,-0.02193534240907433,Vmag_get_voltage_magnitude_series__angle_get_voltage_angle_series,true
0.8,-0.02208080783436801,-0.02208080783436801,Vmag_get_voltage_magnitude_series__angle_get_voltage_angle_series,true
0.81,-0.022218609886189806,-0.022218609886189806,Vmag_get_voltage_magnitude_series__angle_get_voltage_angle_series,true
0.82,-0.02234909777447296,-0.02234909777447296,Vmag_get_voltage_magnitude_series__angle_get_voltage_angle_series,true
0.83,-0.022472632871736894,-0.022472632871736894,Vmag_get_voltage_magnitude_series__angle_get_voltage_angle_series,true
0.84,-0.022589585820152577,-0.022589585820152577,Vmag_get_voltage_magnitude_series__angle_get_voltage_angle_series,true
0.85,-0.02270033372678522,-0.02270033372678522,Vmag_get_voltage_magnitude_series__angle_get_voltage_angle_series,true
0.86,-0.022805257483225608,-0.022805257483225608,Vmag_get_voltage_magnitude_series__angle_get_voltage_angle_series,true
0.87,-0.02290473923452586,-0.02290473923452586,Vmag_get_voltage_magnitude_series__angle_get_voltage_angle_series,true
0.88,-0.02299915999818409,-0.02299915999818409,Vmag_get_voltage_magnitude_series__angle_get_voltage_angle_series,true
0.89,-0.023088897453044096,-0.023088897453044096,Vmag_get_voltage_magnitude_series__angle_get_voltage_angle_series,true
0.9,-0.023174323903097413,-0.023174323903097413,Vmag_get_voltage_magnitude_series__angle_get_voltage_angle_series,true
0.91,-0.02325580441482005,-0.02325580441482005,Vmag_get_voltage_magnitude_series__angle_get_voltage_angle_series,true
0.92,-0.023333695132442787,-0.023333695132442787,Vmag_get_voltage_magnitude_series__angle_get_voltage_angle_series,true
0.93,-0.02340834176676578,-0.02340834176676578,Vmag_get_voltage_magnitude_series__angle_get_voltage_angle_series,true
0.94,-0.023480078259707948,-0.023480078259707948,Vmag_get_voltage_magnitude_series__angle_get_voltage_angle_series,true
0.95,-0.023549225601069364,-0.023549225601069364,Vmag_get_voltage_magnitude_series__angle_get_voltage_angle_series,true
0.96,-0.023616090813423547,-0.023616090813423547,Vmag_get_voltage_magnitude_series__angle_get_voltage_angle_series,true
0.97,-0.023680966096650137,-0.023680966096650137,Vmag_get_voltage_magnitude_series__angle_get_voltage_angle_series,true
0.98,-0.02374412809037381,-0.02374412809037381,Vmag_get_voltage_magnitude_series__angle_get_voltage_angle_series,true
0.99,-0.02380583729860323,-0.02380583729860323,Vmag_get_voltage_magnitude_series__angle_get_voltage_angle_series,true
1.0,-0.02386633764327979,-0.02386633764327979,Vmag_get_voltage_magnitude_series__angle_get_voltage_angle_series,true
1.01,-0.0239258561135879,-0.0239258561135879,Vmag_get_voltage_magnitude_series__angle_get_voltage_angle_series,true
1.02,-0.023984602564980938,-0.023984602564980938,Vmag_get_voltage_magnitude_series__angle_get_voltage_angle_series,true
1.03,-0.024042769610996155,-0.024042769610996155,Vmag_get_voltage_magnitude_series__angle_get_voltage_angle_series,true
1.04,-0.02410053260801938,-0.02410053260801938,Vmag_get_voltage_magnitude_series__angle_get_voltage_angle_series,true
1.05,-0.024158049765383965,-0.024158049765383965,Vmag_get_voltage_magnitude_series__angle_get_voltage_angle_series,true
1.06,-0.024215462316349953,-0.024215462316349953,Vmag_get_voltage_magnitude_series__angle_get_voltage_angle_series,true
1.07,-0.024272894793218567,-0.024272894793218567,Vmag_get_voltage_magnitude_series__angle_get_voltage_angle_series,true
1.08,-0.024330455379425454,-0.024330455379425454,Vmag_get_voltage_magnitude_series__angle_get_voltage_angle_series,true
1.09,-0.024388236331713803,-0.024388236331713803,Vmag_get_voltage_magnitude_series__angle_get_voltage_angle_series,true
1.1,-0.02444631448026514,-0.02444631448026514,Vmag_get_voltage_magnitude_series__angle_get_voltage_angle_series,true
1.11,-0.024504751780131753,-0.024504751780131753,Vmag_get_voltage_magnitude_series__angle_get_voltage_angle_series,true
1.12,-0.024563595933388385,-0.024563595933388385,Vmag_get_voltage_magnitude_series__angle_get_voltage_angle_series,true
1.13,-0.02462288106383458,-0.02462288106383458,Vmag_get_voltage_magnitude_series__angle_get_voltage_angle_series,true
1.14,-0.024682628426422177,-0.024682628426422177,Vmag_get_voltage_magnitude_series__angle_get_voltage_angle_series,true
1.15,-0.024742847170072774,-0.024742847170072774,Vmag_get_voltage_magnitude_series__angle_get_voltage_angle_series,true
1.16,-0.024803535137738926,-0.024803535137738926,Vmag_get_voltage_magnitude_series__angle_get_voltage_angle_series,true
1.17,-0.02486467968340769,-0.02486467968340769,Vmag_get_voltage_magnitude_series__angle_get_voltage_angle_series,true
1.18,-0.024926258523401145,-0.024926258523401145,Vmag_get_voltage_magnitude_series__angle_get_voltage_angle_series,true
1.19,-0.024988240601147505,-0.024988240601147505,Vmag_get_voltage_magnitude_series__angle_get_voltage_angle_series,true
1.2,-0.02505058696240371,-0.02505058696240371,Vmag_get_voltage_magnitude_series__angle_get_voltage_angle_series,true
1.21,-0.025113251639064905,-0.025113251639064905,Vmag_get_voltage_magnitude_series__angle_get_voltage_angle_series,true
1.22,-0.02517618252495539,-0.02517618252495539,Vmag_get_voltage_magnitude_series__angle_get_voltage_angle_series,true
1.23,-0.025239322251294365,-0.025239322251294365,Vmag_get_voltage_magnitude_series__angle_get_voltage_angle_series,true
1.24,-0.025302609050298807,-0.025302609050298807,Vmag_get_voltage_magnitude_series__angle_get_voltage_angle_series,true
1.25,-0.02536597759449472,-0.02536597759449472,Vmag_get_voltage_magnitude_series__angle_get_voltage_angle_series,true
1.26,-0.02542935982015169,-0.02542935982015169,Vmag_get_voltage_magnitude_series__angle_get_voltage_angle_series,true
1.27,-0.025492685721558925,-0.025492685721558925,Vmag_get_voltage_magnitude_series__angle_get_voltage_angle_series,true
1.28,-0.025555884111424357,-0.025555884111424357,Vmag_get_voltage_magnitude_series__angle_get_voltage_angle_series,true
1.29,-0.025618883349817028,-0.025618883349817028,Vmag_get_voltage_magnitude_series__angle_get_voltage_angle_series,true
1.3,-0.02568161203096079,-0.02568161203096079,Vmag_get_voltage_magnitude_series__angle_get_voltage_angle_series,true
1.31,-0.02574399963054139,-0.02574399963054139,Vmag_get_voltage_magnitude_series__angle_get_voltage_angle_series,true
1.32,-0.02580597710741542,-0.02580597710741542,Vmag_get_voltage_magnitude_series__angle_get_voltage_angle_series,true
1.33,-0.025867477459399584,-0.025867477459399584,Vmag_get_voltage_magnitude_series__angle_get_voltage_angle_series,true
1.34,-0.025928436232041534,-0.025928436232041534,Vmag_get_voltage_magnitude_series__angle_get_voltage_angle_series,true
1.35,-0.025988791975675052,-0.025988791975675052,Vmag_get_voltage_magnitude_series__angle_get_voltage_angle_series,true
1.36,-0.0260484866564719,-0.0260484866564719,Vmag_get_voltage_magnitude_series__angle_get_voltage_angle_series,true
1.37,-0.026107466012630743,-0.026107466012630743,Vmag_get_voltage_magnitude_series__angle_get_voltage_angle_series,true
1.38,-0.026165679865655492,-0.026165679865655492,Vmag_get_voltage_magnitude_series__angle_get_voltage_angle_series,true
1.39,-0.026223082378217293,-0.026223082378217293,Vmag_get_voltage_magnitude_series__angle_get_voltage_angle_series,true
1.4,-0.026279632262917758,-0.026279632262917758,Vmag_get_voltage_magnitude_series__angle_get_voltage_angle_series,true
1.41,-0.026335292948080295,-0.026335292948080295,Vmag_get_voltage_magnitude_series__angle_get_voltage_angle_series,true
1.42,-0.02639003269230515,-0.02639003269230515,Vmag_get_voltage_magnitude_series__angle_get_voltage_angle_series,true
1.43,-0.02644382465443917,-0.02644382465443917,Vmag_get_voltage_magnitude_series__angle_get_voltage_angle_series,true
1.44,-0.026496646926663685,-0.026496646926663685,Vmag_get_voltage_magnitude_series__angle_get_voltage_angle_series,true
1.45,-0.026548482520895658,-0.026548482520895658,Vmag_get_voltage_magnitude_series__angle_get_voltage_angle_series,true
1.46,-0.0265993193175771,-0.0265993193175771,Vmag_get_voltage_magnitude_series__angle_get_voltage_angle_series,true
1.47,-0.0266491499833799,-0.0266491499833799,Vmag_get_voltage_magnitude_series__angle_get_voltage_angle_series,true
1.48,-0.026697971852062265,-0.026697971852062265,Vmag_get_voltage_magnitude_series__angle_get_voltage_angle_series,true
1.49,-0.026745786773507422,-0.026745786773507422,Vmag_get_voltage_magnitude_series__angle_get_voltage_angle_series,true
1.5,-0.02679260093735753,-0.02679260093735753,Vmag_get_voltage_magnitude_series__angle_get_voltage_angle_series,true
1.51,-0.02683842467232203,-0.02683842467232203,Vmag_get_voltage_magnitude_series__angle_get_voltage_angle_series,true
1.52,-0.026883272220591697,-0.026883272220591697,Vmag_get_voltage_magnitude_series__angle_get_voltage_angle_series,true
1.53,-0.02692716149501364,-0.02692716149501364,Vmag_get_voltage_magnitude_series__angle_get_voltage_angle_series,true
1.54,-0.026970113818129134,-0.026970113818129134,Vmag_get_voltage_magnitude_series__angle_get_voltage_angle_series,true
1.55,-0.02701215364841048,-0.02701215364841048,Vmag_get_voltage_magnitude_series__angle_get_voltage_angle_series,true
1.56,-0.027053308294906733,-0.027053308294906733,Vmag_get_voltage_magnitude_series__angle_get_voltage_angle_series,true
1.57,-0.02709360762218453,-0.02709360762218453,Vmag_get_voltage_magnitude_series__angle_get_voltage_angle_series,true
1.58,-0.027133083752574214,-0.027133083752574214,Vmag_get_voltage_magnitude_series__angle_get_voltage_angle_series,true
1.59,-0.02717177076107333,-0.02717177076107333,Vmag_get_voltage_magnitude_series__angle_get_voltage_angle_series,true
1.6,-0.027209704371349605,-0.027209704371349605,Vmag_get_voltage_magnitude_series__angle_get_voltage_angle_series,true
1.61,-0.027246921653281915,-0.027246921653281915,Vmag_get_voltage_magnitude_series__angle_get_voltage_angle_series,true
1.62,-0.027283460721670393,-0.027283460721670393,Vmag_get_voltage_magnitude_series__angle_get_voltage_angle_series,true
1.63,-0.027319360442795034,-0.027319360442795034,Vmag_get_voltage_magnitude_series__angle_get_voltage_angle_series,true
1.64,-0.027354660146449977,-0.027354660146449977,Vmag_get_voltage_magnitude_series__angle_get_voltage_angle_series,true
1.65,-0.027389399347469714,-0.027389399347469714,Vmag_get_voltage_magnitude_series__angle_get_voltage_angle_series,true
1.66,-0.027423617478354118,-0.027423617478354118,Vmag_get_voltage_magnitude_series__angle_get_voltage_angle_series,true
1.67,-0.027457353632871634,-0.027457353632871634,Vmag_get_voltage_magnitude_series__angle_get_voltage_angle_series,true
1.68,-0.02749064632383957,-0.02749064632383957,Vmag_get_voltage_magnitude_series__angle_get_voltage_angle_series,true
1.69,-0.027523533254828418,-0.027523533254828418,Vmag_get_voltage_magnitude_series__angle_get_voltage_angle_series,true
1.7,-0.027556051107914925,-0.027556051107914925,Vmag_get_voltage_magnitude_series__angle_get_voltage_angle_series,true
1.71,-0.027588235346737995,-0.027588235346737995,Vmag_get_voltage_magnitude_series__angle_get_voltage_angle_series,true
1.72,-0.027620120036972676,-0.027620120036972676,Vmag_get_voltage_magnitude_series__angle_get_voltage_angle_series,true
1.73,-0.027651737685484835,-0.027651737685484835,Vmag_get_voltage_magnitude_series__angle_get_voltage_angle_series,true
1.74,-0.027683119094661476,-0.027683119094661476,Vmag_get_voltage_magnitude_series__angle_get_voltage_angle_series,true
1.75,-0.027714293236919988,-0.027714293236919988,Vmag_get_voltage_magnitude_series__angle_get_voltage_angle_series,true
1.76,-0.027745287147886943,-0.027745287147886943,Vmag_get_voltage_magnitude_series__angle_get_voltage_angle_series,true
1.77,-0.027776125834777194,-0.027776125834777194,Vmag_get_voltage_magnitude_series__angle_get_voltage_angle_series,true
1.78,-0.027806832205782818,-0.027806832205782818,Vmag_get_voltage_magnitude_series__angle_get_voltage_angle_series,true
1.79,-0.02783742701644078,-0.02783742701644078,Vmag_get_voltage_magnitude_series__angle_get_voltage_angle_series,true
1.8,-0.027867928831613296,-0.027867928831613296,Vmag_get_voltage_magnitude_series__angle_get_voltage_angle_series,true
1.81,-0.02789835400603464,-0.02789835400603464,Vmag_get_voltage_magnitude_series__angle_get_voltage_angle_series,true
1.82,-0.027928716681485676,-0.027928716681485676,Vmag_get_voltage_magnitude_series__angle_get_voltage_angle_series,true
1.83,-0.02795902879661497,-0.02795902879661497,Vmag_get_voltage_magnitude_series__angle_get_voltage_angle_series,true
1.84,-0.02798930011484113,-0.02798930011484113,Vmag_get_voltage_magnitude_series__angle_get_voltage_angle_series,true
1.85,-0.02801953826392883,-0.02801953826392883,Vmag_get_voltage_magnitude_series__angle_get_voltage_angle_series,true
1.86,-0.028049748789790947,-0.028049748789790947,Vmag_get_voltage_magnitude_series__angle_get_voltage_angle_series,true
1.87,-0.02807993522110125,-0.02807993522110125,Vmag_get_voltage_magnitude_series__angle_get_voltage_angle_series,true
1.88,-0.02811009914614993,-0.02811009914614993,Vmag_get_voltage_magnitude_series__angle_get_voltage_angle_series,true
1.89,-0.02814024029935394,-0.02814024029935394,Vmag_get_voltage_magnitude_series__angle_get_voltage_angle_series,true
1.9,-0.02817035665590764,-0.02817035665590764,Vmag_get_voltage_magnitude_series__angle_get_voltage_angle_series,true
1.91,-0.028200444535287212,-0.028200444535287212,Vmag_get_voltage_magnitude_series__angle_get_voltage_angle_series,true
1.92,-0.028230498711774847,-0.028230498711774847,Vmag_get_voltage_magnitude_series__angle_get_voltage_angle_series,true
1.93,-0.028260512529349656,-0.028260512529349656,Vmag_get_voltage_magnitude_series__angle_get_voltage_angle_series,true
1.94,-0.028290478022546868,-0.028290478022546868,Vmag_get_voltage_magnitude_series__angle_get_voltage_angle_series,true
1.95,-0.02832038604047647,-0.02832038604047647,Vmag_get_voltage_magnitude_series__angle_get_voltage_angle_series,true
1.96,-0.02835022637332332,-0.02835022637332332,Vmag_get_voltage_magnitude_series__angle_get_voltage_angle_series,true
1.97,-0.028379987880960817,-0.028379987880960817,Vmag_get_voltage_magnitude_series__angle_get_voltage_angle_series,true
1.98,-0.028409658621226304,-0.028409658621226304,Vmag_get_voltage_magnitude_series__angle_get_voltage_angle_series,true
1.99,-0.02843922597877114,-0.02843922597877114,Vmag_get_voltage_magnitude_series__angle_get_voltage_angle_series,true
...
